I"Ô/Users/michaelkang/Desktop/rails%20lessons/rails-dynamic-request-readme-v-000/app/assets/stylesheets/application.css?type=text/css&pipeline=self&id=0b89a7c250579fd693497e98f7e61cd28792215474fae123d47996a06b57737e:ET