I"Ï/Users/Ariana/Development/Learn%20Labs/rails-dynamic-request-readme-v-000/app/assets/javascripts/application.js?type=application/javascript&id=2bb8902838f75cd2bb9e0aff5d36ec4bb7f952cbfce52366cb718a95671c81c7:ET