I"Ò/Users/kachelwittig/Google%20Drive/CODE/Flatiron/Rails/rails-dynamic-request/app/assets/javascripts/application.js?type=application/javascript&id=b0bf8ab24e0df83feaee8c9336406baab1c310e0f6de77c1142ccaf60a6878ed:ET