[o:Set:
@hash}I"environment-version:ETTI"environment-paths;TTI"rails-env;TTI">processors:type=text/css&file_type=text/css&pipeline=self;TTI"Åfile-digest:///Users/kachelwittig/Google%20Drive/CODE/Flatiron/Rails/rails-dynamic-request/app/assets/stylesheets/application.css;TTI"vfile-digest:///Users/kachelwittig/Google%20Drive/CODE/Flatiron/Rails/rails-dynamic-request/app/assets/stylesheets;TTF