I"Â/Users/Ariana/Development/Learn%20Labs/rails-dynamic-request-readme-v-000/app/assets/stylesheets/application.css?type=text/css&id=6e465deb033704154133f5345d3ec7601bbf49348ddc283cdfdec9183d78fcca:ET