I"Ó/Users/michaelkang/Desktop/rails%20lessons/rails-dynamic-request-readme-v-000/app/assets/javascripts/application.js?type=application/javascript&id=da5b3abd55c8483bb78547bf59c5b669a31916af41432ee528ecbf6074409706:ET