I"Ï/Users/Ariana/Development/Learn%20Labs/rails-dynamic-request-readme-v-000/app/assets/javascripts/application.js?type=application/javascript&id=ff44696a311ce20c1275478f19090410f36cc5454ff5835fb6d33cf17410c9e7:ET