[o:Set:
@hash})I"environment-version:ETTI"environment-paths;TTI"rails-env;TTI"Zprocessors:type=application/javascript&file_type=application/javascript&pipeline=self;TTI"file-digest:///Users/guibinzhang/Flatiron%20Learn/rails-dynamic-request-readme-v-000/app/assets/javascripts/application.js;TTI"kfile-digest:///Users/guibinzhang/Flatiron%20Learn/rails-dynamic-request-readme-v-000/app/assets/images;TTI"rfile-digest:///Users/guibinzhang/Flatiron%20Learn/rails-dynamic-request-readme-v-000/app/assets/images/jquery;TTI"pfile-digest:///Users/guibinzhang/Flatiron%20Learn/rails-dynamic-request-readme-v-000/app/assets/javascripts;TTI"wfile-digest:///Users/guibinzhang/Flatiron%20Learn/rails-dynamic-request-readme-v-000/app/assets/javascripts/jquery;TTI"pfile-digest:///Users/guibinzhang/Flatiron%20Learn/rails-dynamic-request-readme-v-000/app/assets/stylesheets;TTI"wfile-digest:///Users/guibinzhang/Flatiron%20Learn/rails-dynamic-request-readme-v-000/app/assets/stylesheets/jquery;TTI"sfile-digest:///Users/guibinzhang/Flatiron%20Learn/rails-dynamic-request-readme-v-000/vendor/assets/javascripts;TTI"zfile-digest:///Users/guibinzhang/Flatiron%20Learn/rails-dynamic-request-readme-v-000/vendor/assets/javascripts/jquery;TTI"sfile-digest:///Users/guibinzhang/Flatiron%20Learn/rails-dynamic-request-readme-v-000/vendor/assets/stylesheets;TTI"zfile-digest:///Users/guibinzhang/Flatiron%20Learn/rails-dynamic-request-readme-v-000/vendor/assets/stylesheets/jquery;TTI"lfile-digest:///Users/guibinzhang/.rvm/gems/ruby-2.3.3/gems/jquery-rails-4.3.1/vendor/assets/javascripts;TTI"sfile-digest:///Users/guibinzhang/.rvm/gems/ruby-2.3.3/gems/jquery-rails-4.3.1/vendor/assets/javascripts/jquery;TTI"vfile-digest:///Users/guibinzhang/.rvm/gems/ruby-2.3.3/gems/jquery-rails-4.3.1/vendor/assets/javascripts/jquery.js;TTI"vfile-digest:///Users/guibinzhang/Flatiron%20Learn/rails-dynamic-request-readme-v-000/app/assets/images/jquery_ujs;TTI"{file-digest:///Users/guibinzhang/Flatiron%20Learn/rails-dynamic-request-readme-v-000/app/assets/javascripts/jquery_ujs;TTI"{file-digest:///Users/guibinzhang/Flatiron%20Learn/rails-dynamic-request-readme-v-000/app/assets/stylesheets/jquery_ujs;TTI"~file-digest:///Users/guibinzhang/Flatiron%20Learn/rails-dynamic-request-readme-v-000/vendor/assets/javascripts/jquery_ujs;TTI"~file-digest:///Users/guibinzhang/Flatiron%20Learn/rails-dynamic-request-readme-v-000/vendor/assets/stylesheets/jquery_ujs;TTI"wfile-digest:///Users/guibinzhang/.rvm/gems/ruby-2.3.3/gems/jquery-rails-4.3.1/vendor/assets/javascripts/jquery_ujs;TTI"zfile-digest:///Users/guibinzhang/.rvm/gems/ruby-2.3.3/gems/jquery-rails-4.3.1/vendor/assets/javascripts/jquery_ujs.js;TTI"vfile-digest:///Users/guibinzhang/Flatiron%20Learn/rails-dynamic-request-readme-v-000/app/assets/images/turbolinks;TTI"{file-digest:///Users/guibinzhang/Flatiron%20Learn/rails-dynamic-request-readme-v-000/app/assets/javascripts/turbolinks;TTI"{file-digest:///Users/guibinzhang/Flatiron%20Learn/rails-dynamic-request-readme-v-000/app/assets/stylesheets/turbolinks;TTI"~file-digest:///Users/guibinzhang/Flatiron%20Learn/rails-dynamic-request-readme-v-000/vendor/assets/javascripts/turbolinks;TTI"~file-digest:///Users/guibinzhang/Flatiron%20Learn/rails-dynamic-request-readme-v-000/vendor/assets/stylesheets/turbolinks;TTI"wfile-digest:///Users/guibinzhang/.rvm/gems/ruby-2.3.3/gems/jquery-rails-4.3.1/vendor/assets/javascripts/turbolinks;TTI"ifile-digest:///Users/guibinzhang/.rvm/gems/ruby-2.3.3/gems/coffee-rails-4.1.1/lib/assets/javascripts;TTI"tfile-digest:///Users/guibinzhang/.rvm/gems/ruby-2.3.3/gems/coffee-rails-4.1.1/lib/assets/javascripts/turbolinks;TTI"nfile-digest:///Users/guibinzhang/.rvm/gems/ruby-2.3.3/gems/turbolinks-source-5.1.0/lib/assets/javascripts;TTI"yfile-digest:///Users/guibinzhang/.rvm/gems/ruby-2.3.3/gems/turbolinks-source-5.1.0/lib/assets/javascripts/turbolinks;TTI"|file-digest:///Users/guibinzhang/.rvm/gems/ruby-2.3.3/gems/turbolinks-source-5.1.0/lib/assets/javascripts/turbolinks.js;TTF