I"¿/Users/guibinzhang/Flatiron%20Learn/rails-dynamic-request-readme-v-000/app/assets/stylesheets/application.css?type=text/css&id=f89d289a93ce5b444ac2d85d92fd3cbef211136d809f6b2fc7be88d709bc9a6c:ET