I"/Users/logansmcansh/Library/Mobile%20Documents/com~apple~CloudDocs/LEARN/rails/rails-dynamic-request-readme-v-000/app/assets/javascripts/application.js?type=application/javascript&pipeline=self&id=cb88eaccbbd9b00bbd9e795be1e9cbac4b553157c6709ae11386610b48b12442:ET