I"Ó/Users/raustin/Development/Labs%20and%20Exercises/Rails/rails-dynamic-request-readme-v-000/app/assets/stylesheets/application.css?type=text/css&id=41783fbd91fffd5e29a3887f13a9cde5a6ccb4dff356351b5e5b975fc6dbe629:ET