I"Õ/Users/michaelkang/Desktop/rails%20lessons/rails-dynamic-request-readme-v-000/app/assets/stylesheets/application.css?type=text/css&pipeline=debug&id=67ba00eef6d4d6ab6951b885b0e1e8cb524d3316d4074786016d7f80a1718879:ET