I"Ú/Users/guibinzhang/Flatiron%20Learn/rails-dynamic-request-readme-v-000/app/assets/javascripts/application.js?type=application/javascript&pipeline=self&id=edcbf70effdcf777b1b9539b02709b9a96386109a4bbc0acf1ab1a553098169a:ET