I"í/Users/janicedarikho/Documents/Code%20+%20UI:UX/Flatiron/Labs/Rails/rails-dynamic-request-readme-v-000/app/assets/stylesheets/application.css?type=text/css&pipeline=self&id=92179666e861e11160ca5d2e8bb30b5361b58d2a1b3e1a214da14c92458bcf31:ET