I"ê/Users/logansmcansh/Library/Mobile%20Documents/com~apple~CloudDocs/LEARN/rails/rails-dynamic-request-readme-v-000/app/assets/stylesheets/application.css?type=text/css&id=c3f5148543733371310edf4c5b01bf70715f62c6b4dd2d14095f4a0c02aac838:ET