I"/Users/logansmcansh/Library/Mobile%20Documents/com~apple~CloudDocs/LEARN/rails/rails-dynamic-request-readme-v-000/app/assets/javascripts/application.js?type=application/javascript&pipeline=self&id=23d96cccb06683baad8cbe895a745dc5904feaa7304e3ec9171e3079bcad7c10:ET