I"ß/Users/janicedarikho/Documents/Code%20+%20UI:UX/Flatiron/Labs/Rails/rails-dynamic-request-readme-v-000/app/assets/stylesheets/application.css?type=text/css&id=83b8d427063a48a1b27ef20a966749340c33f3c80a9cfb81f879436ff3049b68:ET