I"Ñ/Users/Ariana/Development/Learn%20Labs/rails-dynamic-request-readme-v-000/app/assets/stylesheets/application.css?type=text/css&pipeline=debug&id=851331ec780be2e591c9de6dd8217582c38526e2f6decbd7ee9ab746644dc0da:ET