I"Ý/Users/Ariana/Development/Learn%20Labs/rails-dynamic-request-readme-v-000/app/assets/javascripts/application.js?type=application/javascript&pipeline=self&id=4d74955d2c4834f67a6644f80cee9bee7dce0ba603b3a9a42a6b9dd617b59482:ET