I"/Users/logansmcansh/Library/Mobile%20Documents/com~apple~CloudDocs/LEARN/rails/rails-dynamic-request-readme-v-000/app/assets/javascripts/application.js?type=application/javascript&pipeline=debug&id=677154c85515c416fa00c4f97afe7e666c4ae096021e87d66ea10d858a8dd139:ET