[o:Set:
@hash}I"environment-version:ETTI"environment-paths;TTI"rails-env;TTI"?processors:type=text/css&file_type=text/css&pipeline=debug;TTI"‚file-digest:///Users/michaelkang/Desktop/rails%20lessons/rails-dynamic-request-readme-v-000/app/assets/stylesheets/application.css;TTI">processors:type=text/css&file_type=text/css&pipeline=self;TTI"wfile-digest:///Users/michaelkang/Desktop/rails%20lessons/rails-dynamic-request-readme-v-000/app/assets/stylesheets;TTF