I"á/Users/michaelkang/Desktop/rails%20lessons/rails-dynamic-request-readme-v-000/app/assets/javascripts/application.js?type=application/javascript&pipeline=self&id=1b708117ac8750e64087996ae6fd2296f5624bb58aa87a532c42ada143e38911:ET