I"Ð/Users/Ariana/Development/Learn%20Labs/rails-dynamic-request-readme-v-000/app/assets/stylesheets/application.css?type=text/css&pipeline=self&id=2c9a61e14f41c1326aa857a8e69c814ac2c27adce196d7f0b034ed8099a9b967:ET