I"ë/Users/theresamorelli%201%202/Development/code/Rails/rails-dynamic-request-readme-v-000/app/assets/javascripts/application.js?type=application/javascript&pipeline=self&id=45d827d1911eedd3c1096595883f0dd7f8f4b938cfdbbf54a3c78c327df9a840:ET