I"ñ/Users/andysbrain/Development/Labs%20and%20Exercises/Rails/rails-dynamic-request-readme-v-000/app/assets/javascripts/application.js?type=application/javascript&pipeline=self&id=00aa6fa97942de8ca13afbeea5018ea1e6100f9abb31939ea0237ce444f69df5:ET