[o:Set:
@hash}I"environment-version:ETTI"environment-paths;TTI"rails-env;TTI">processors:type=text/css&file_type=text/css&pipeline=self;TTI"{file-digest:///Users/guibinzhang/Flatiron%20Learn/rails-dynamic-request-readme-v-000/app/assets/stylesheets/application.css;TTI"pfile-digest:///Users/guibinzhang/Flatiron%20Learn/rails-dynamic-request-readme-v-000/app/assets/stylesheets;TTF