I"ê/Users/logansmcansh/Library/Mobile%20Documents/com~apple~CloudDocs/LEARN/rails/rails-dynamic-request-readme-v-000/app/assets/stylesheets/application.css?type=text/css&id=728a97b8bcc6d358bcf48326a3e5cc96bfa84566dc47602b1dcec4b9754712f1:ET