I"â/Users/michaelkang/Desktop/rails%20lessons/rails-dynamic-request-readme-v-000/app/assets/javascripts/application.js?type=application/javascript&pipeline=debug&id=2fe9d8cf2ebba0e476ba06ceebe7a11c8fae53927f0bc47354847b5f19cc0eef:ET