I"Ô/Users/michaelkang/Desktop/rails%20lessons/rails-dynamic-request-readme-v-000/app/assets/stylesheets/application.css?type=text/css&pipeline=self&id=97e39c59dcfb37b6288327fa1e6e476ecacbe164ca91fb8702a7d22f4996c3c1:ET