I"á/Users/raustin/Development/Labs%20and%20Exercises/Rails/rails-dynamic-request-readme-v-000/app/assets/stylesheets/application.css?type=text/css&pipeline=self&id=e6fbfff6fcdae977aefd737521eb4f2a26bb975c793ef3ee1359e311d2c58986:ET