I"ä/Users/andysbrain/Development/Labs%20and%20Exercises/Rails/rails-dynamic-request-readme-v-000/app/assets/stylesheets/application.css?type=text/css&pipeline=self&id=5cf87d6c30736d1964f0c8eda33f55fa660c08796de265d5a90b1f2e620d99ec:ET