I"Þ/Users/Ariana/Development/Learn%20Labs/rails-dynamic-request-readme-v-000/app/assets/javascripts/application.js?type=application/javascript&pipeline=debug&id=52c42c7d03efbafaa8b03a12e13932a99068d8a50394b0e4b261a1e6cc590d14:ET