I"Æ/Users/michaelkang/Desktop/rails%20lessons/rails-dynamic-request-readme-v-000/app/assets/stylesheets/application.css?type=text/css&id=a779a7a9dad70bd4a76480922ef1f4f72945a039fda2f7d34a724277cb39de69:ET