I"ç/Users/brandenmiller/Development/Learn/Rails/Intro%20to%20REST/rails-dynamic-request-readme-v-000/app/assets/javascripts/application.js?type=application/javascript&id=de4bae0d8571f0223b420a57ad97622835540f16351d2cb5975155705a589b58:ET