I"Ú/Users/brandenmiller/Development/Learn/Rails/Intro%20to%20REST/rails-dynamic-request-readme-v-000/app/assets/stylesheets/application.css?type=text/css&id=94c25cb03b51821c4254a4ecb12c729d332e4126f7c6002df4437f759de1a9b0:ET