[o:Set:
@hash}
I"environment-version:ETTI"environment-paths;TTI">processors:type=text/css&file_type=text/css&pipeline=self;TTI"{file-digest:///home/mariel/Flatiron%20School/rails-dynamic-request-readme-v-000/app/assets/stylesheets/application.css;TTI"kfile-digest:///home/mariel/Flatiron%20School/rails-dynamic-request-readme-v-000/app/assets/stylesheets;TTF