I"Ð/Users/NeWdEsiGNs/Learn%20Flatiron%20School/rails-dynamic-request-readme-v-000/app/assets/stylesheets/posts.scss?type=text/css&pipeline=self&id=3bb5a7eeb6276371a943038e9a640496e308043f572d92ee445d1c77af9d8c59:ET