I"ö/Users/brandenmiller/Development/Learn/Rails/Intro%20to%20REST/rails-dynamic-request-readme-v-000/app/assets/javascripts/application.js?type=application/javascript&pipeline=debug&id=bbb12acd3745c019ab9390709d87000340030a04478aff52615c656ac8f08c9e:ET