[o:Set:
@hash}I"environment-version:ETTI"environment-paths;TTI">processors:type=text/css&file_type=text/css&pipeline=self;TTI"ƒfile-digest:///Users/NeWdEsiGNs/Learn%20Flatiron%20School/rails-dynamic-request-readme-v-000/app/assets/stylesheets/application.css;TTI"xfile-digest:///Users/NeWdEsiGNs/Learn%20Flatiron%20School/rails-dynamic-request-readme-v-000/app/assets/stylesheets;TTI"~file-digest:///Users/NeWdEsiGNs/Learn%20Flatiron%20School/rails-dynamic-request-readme-v-000/app/assets/stylesheets/posts.scss;TTF