I"à/Users/NeWdEsiGNs/Learn%20Flatiron%20School/rails-dynamic-request-readme-v-000/app/assets/javascripts/posts.coffee?type=application/javascript&pipeline=self&id=caaf495c1cbbb8a09fe76e85df8eef0c18fafc6350a785e84caff7568b6d3f51:ET