I"é/Users/brandenmiller/Development/Learn/Rails/Intro%20to%20REST/rails-dynamic-request-readme-v-000/app/assets/stylesheets/application.css?type=text/css&pipeline=debug&id=17f3fd760a0b47240da1c7d4e0c4619407b0f1e5e705b9cd46044bd55c07369a:ET