I"Ú/Users/brandenmiller/Development/Learn/Rails/Intro%20to%20REST/rails-dynamic-request-readme-v-000/app/assets/stylesheets/application.css?type=text/css&id=f2f69d7db2cb514962dfc7cd679692b3bd0a9b21ca5d0fb4ec808975d6e86278:ET