I"è/Users/brandenmiller/Development/Learn/Rails/Intro%20to%20REST/rails-dynamic-request-readme-v-000/app/assets/stylesheets/application.css?type=text/css&pipeline=self&id=709c02d9666897d92586928c9c0953b138d19e485a075209d1d76e8a57e8ea2a:ET