I"Ô/Users/NeWdEsiGNs/Learn%20Flatiron%20School/rails-dynamic-request-readme-v-000/app/assets/javascripts/application.js?type=application/javascript&id=25955e139e56d79daf2e786f8451442e927d2267afa6e391efad3d023d4f82b2:ET