I"Õ/home/mariel/Flatiron%20School/rails-dynamic-request-readme-v-000/app/assets/javascripts/application.js?type=application/javascript&pipeline=self&id=590b68799b8fea16ef2639dbfb7d8d6d3e8b36948acf3b05f16da64aaefc3257:ET