I"È/home/mariel/Flatiron%20School/rails-dynamic-request-readme-v-000/app/assets/stylesheets/application.css?type=text/css&pipeline=self&id=f9452a09e40fd6b823d7925c175353c4a729260f9a41194c532163093c2efaa9:ET