I"õ/Users/brandenmiller/Development/Learn/Rails/Intro%20to%20REST/rails-dynamic-request-readme-v-000/app/assets/javascripts/application.js?type=application/javascript&pipeline=self&id=baaa0b910366c6f9f746819dc3c7c987fbee135335d0a1f7e68b49636b82c659:ET