I"Õ/Users/NeWdEsiGNs/Learn%20Flatiron%20School/rails-dynamic-request-readme-v-000/app/assets/stylesheets/application.css?type=text/css&pipeline=self&id=085de253f7d2e64bb798d5b789372082ce92bc3b716ba48070b57e903f9db8b6:ET