[o:Set:
@hash}	I"environment-version:ETTI"environment-paths;TTI"Lprocessors:type=text/css&file_type=text/css&engines=.scss&pipeline=self;TTI"~file-digest:///Users/NeWdEsiGNs/Learn%20Flatiron%20School/rails-dynamic-request-readme-v-000/app/assets/stylesheets/posts.scss;TTF