I"º/home/mariel/Flatiron%20School/rails-dynamic-request-readme-v-000/app/assets/stylesheets/application.css?type=text/css&id=c66e6a464a5a54c220e00716cb4710a4377e75c9f571e5db421a82a3be0b3a0f:ET