I"â/Users/NeWdEsiGNs/Learn%20Flatiron%20School/rails-dynamic-request-readme-v-000/app/assets/javascripts/application.js?type=application/javascript&pipeline=self&id=cbe5eb6f9a91608e8b4313419b6872b22f8675882d19f90a8676aa5f34cee760:ET