I"Ç/home/mariel/Flatiron%20School/rails-dynamic-request-readme-v-000/app/assets/javascripts/application.js?type=application/javascript&id=ca7c9ef2057126741ec10ec56448a1f35f771dba9b327606d370bf312d20c3c7:ET