I"Ç/Users/NeWdEsiGNs/Learn%20Flatiron%20School/rails-dynamic-request-readme-v-000/app/assets/stylesheets/application.css?type=text/css&id=4d21db1e187a11865b28c72d6cd409a6ae7427ea757336538b7a484d73374823:ET