[o:Set:
@hash}'I"environment-version:ETTI"environment-paths;TTI"Zprocessors:type=application/javascript&file_type=application/javascript&pipeline=self;TTI"zfile-digest:///home/mariel/Flatiron%20School/rails-dynamic-request-readme-v-000/app/assets/javascripts/application.js;TTI"ffile-digest:///home/mariel/Flatiron%20School/rails-dynamic-request-readme-v-000/app/assets/images;TTI"mfile-digest:///home/mariel/Flatiron%20School/rails-dynamic-request-readme-v-000/app/assets/images/jquery;TTI"kfile-digest:///home/mariel/Flatiron%20School/rails-dynamic-request-readme-v-000/app/assets/javascripts;TTI"rfile-digest:///home/mariel/Flatiron%20School/rails-dynamic-request-readme-v-000/app/assets/javascripts/jquery;TTI"kfile-digest:///home/mariel/Flatiron%20School/rails-dynamic-request-readme-v-000/app/assets/stylesheets;TTI"rfile-digest:///home/mariel/Flatiron%20School/rails-dynamic-request-readme-v-000/app/assets/stylesheets/jquery;TTI"nfile-digest:///home/mariel/Flatiron%20School/rails-dynamic-request-readme-v-000/vendor/assets/javascripts;TTI"ufile-digest:///home/mariel/Flatiron%20School/rails-dynamic-request-readme-v-000/vendor/assets/javascripts/jquery;TTI"nfile-digest:///home/mariel/Flatiron%20School/rails-dynamic-request-readme-v-000/vendor/assets/stylesheets;TTI"ufile-digest:///home/mariel/Flatiron%20School/rails-dynamic-request-readme-v-000/vendor/assets/stylesheets/jquery;TTI"vfile-digest:///home/mariel/.rbenv/versions/2.3.1/lib/ruby/gems/2.3.0/gems/turbolinks-2.5.3/lib/assets/javascripts;TTI"}file-digest:///home/mariel/.rbenv/versions/2.3.1/lib/ruby/gems/2.3.0/gems/turbolinks-2.5.3/lib/assets/javascripts/jquery;TTI"{file-digest:///home/mariel/.rbenv/versions/2.3.1/lib/ruby/gems/2.3.0/gems/jquery-rails-4.0.5/vendor/assets/javascripts;TTI"}file-digest:///home/mariel/.rbenv/versions/2.3.1/lib/ruby/gems/2.3.0/gems/jquery-rails-4.0.5/vendor/assets/javascripts/jquery;TTI"Äfile-digest:///home/mariel/.rbenv/versions/2.3.1/lib/ruby/gems/2.3.0/gems/jquery-rails-4.0.5/vendor/assets/javascripts/jquery.js;TTI"qfile-digest:///home/mariel/Flatiron%20School/rails-dynamic-request-readme-v-000/app/assets/images/jquery_ujs;TTI"vfile-digest:///home/mariel/Flatiron%20School/rails-dynamic-request-readme-v-000/app/assets/javascripts/jquery_ujs;TTI"vfile-digest:///home/mariel/Flatiron%20School/rails-dynamic-request-readme-v-000/app/assets/stylesheets/jquery_ujs;TTI"yfile-digest:///home/mariel/Flatiron%20School/rails-dynamic-request-readme-v-000/vendor/assets/javascripts/jquery_ujs;TTI"yfile-digest:///home/mariel/Flatiron%20School/rails-dynamic-request-readme-v-000/vendor/assets/stylesheets/jquery_ujs;TTI"|file-digest:///home/mariel/.rbenv/versions/2.3.1/lib/ruby/gems/2.3.0/gems/turbolinks-2.5.3/lib/assets/javascripts/jquery_ujs;TTI"Åfile-digest:///home/mariel/.rbenv/versions/2.3.1/lib/ruby/gems/2.3.0/gems/jquery-rails-4.0.5/vendor/assets/javascripts/jquery_ujs;TTI"Ñfile-digest:///home/mariel/.rbenv/versions/2.3.1/lib/ruby/gems/2.3.0/gems/jquery-rails-4.0.5/vendor/assets/javascripts/jquery_ujs.js;TTI"qfile-digest:///home/mariel/Flatiron%20School/rails-dynamic-request-readme-v-000/app/assets/images/turbolinks;TTI"vfile-digest:///home/mariel/Flatiron%20School/rails-dynamic-request-readme-v-000/app/assets/javascripts/turbolinks;TTI"vfile-digest:///home/mariel/Flatiron%20School/rails-dynamic-request-readme-v-000/app/assets/stylesheets/turbolinks;TTI"yfile-digest:///home/mariel/Flatiron%20School/rails-dynamic-request-readme-v-000/vendor/assets/javascripts/turbolinks;TTI"yfile-digest:///home/mariel/Flatiron%20School/rails-dynamic-request-readme-v-000/vendor/assets/stylesheets/turbolinks;TTI"|file-digest:///home/mariel/.rbenv/versions/2.3.1/lib/ruby/gems/2.3.0/gems/turbolinks-2.5.3/lib/assets/javascripts/turbolinks;TTI"Üfile-digest:///home/mariel/.rbenv/versions/2.3.1/lib/ruby/gems/2.3.0/gems/turbolinks-2.5.3/lib/assets/javascripts/turbolinks.js.coffee;TTF