I"á/Users/michaelkang/Desktop/rails%20lessons/rails-dynamic-request-readme-v-000/app/assets/javascripts/application.js?type=application/javascript&pipeline=self&id=33e647b207faa08fd25057c4ef02693a2900da0affe26abaf323a55a6851a255:ET