I"é/Users/apple/Desktop/Desktop%20-%20Jessie's%20MacBook%20Pro%2015/Flairon/Labs/rails-dynamic-request-readme-v-000/app/assets/stylesheets/application.css?type=text/css&id=cce8cccb0b5f8feb615b23329d1a1e831687bf397669b7218ce22f80c5bdb3fd:ET