I"Ó/Users/michaelkang/Desktop/rails%20lessons/rails-dynamic-request-readme-v-000/app/assets/javascripts/application.js?type=application/javascript&id=b9224959ba73d58e0c100ceffa33ea6c3a29327c8ee0e23e4531f47600ae3d36:ET