I"÷/Users/logansmcansh/Library/Mobile%20Documents/com~apple~CloudDocs/LEARN/rails/rails-dynamic-request-readme-v-000/app/assets/javascripts/application.js?type=application/javascript&id=88b65ae731069ea0ff6889fa264ae2befb2d0bbdfee2816e2cd25d012ad9222e:ET