I"ø/Users/logansmcansh/Library/Mobile%20Documents/com~apple~CloudDocs/LEARN/rails/rails-dynamic-request-readme-v-000/app/assets/stylesheets/application.css?type=text/css&pipeline=self&id=1c8e66ba468966d3f49e999075d0542e5bc0c71dc7e00b9480d3a6285051b1f2:ET