I"Æ/Users/michaelkang/Desktop/rails%20lessons/rails-dynamic-request-readme-v-000/app/assets/stylesheets/application.css?type=text/css&id=90444b9adcd914dee03f55d4c826443bc44752573821396b278364c8cfcbed2f:ET