I"à/Users/kachelwittig/Google%20Drive/CODE/Flatiron/Rails/rails-dynamic-request/app/assets/javascripts/application.js?type=application/javascript&pipeline=self&id=2075687754f5787932cc97b9da9843e540533992bf7d9ea2faf030b172c25b9b:ET