I"Ð/Users/Ariana/Development/Learn%20Labs/rails-dynamic-request-readme-v-000/app/assets/stylesheets/application.css?type=text/css&pipeline=self&id=3d75215e87e17547d65b923b82f2a4465ece750dff9e1744a3a6baa37931fd2c:ET