I"Ð/Users/theresamorelli%201%202/Development/code/Rails/rails-dynamic-request-readme-v-000/app/assets/stylesheets/application.css?type=text/css&id=c470839f2aa94736020ad55913baa8e584d68994a3a67257e895f73aaf76f04c:ET