I"ö/Users/apple/Desktop/Desktop%20-%20Jessie's%20MacBook%20Pro%2015/Flairon/Labs/rails-dynamic-request-readme-v-000/app/assets/javascripts/application.js?type=application/javascript&id=73a94d8a3be53850df15ca40ab863b14c78c69273fd8f023f68f1c21f174ca4e:ET