I"Ó/Users/kachelwittig/Google%20Drive/CODE/Flatiron/Rails/rails-dynamic-request/app/assets/stylesheets/application.css?type=text/css&pipeline=self&id=34c3b137752fe5dd26744dab96cc5f9721cec6a28c845a695576fbec869163de:ET