I"Þ/Users/theresamorelli%201%202/Development/code/Rails/rails-dynamic-request-readme-v-000/app/assets/stylesheets/application.css?type=text/css&pipeline=self&id=9f0fe165b33c8321d80ded734ae71b1203f760fac17aa905e8d38d81c5feb9f5:ET