I"ù/Users/logansmcansh/Library/Mobile%20Documents/com~apple~CloudDocs/LEARN/rails/rails-dynamic-request-readme-v-000/app/assets/stylesheets/application.css?type=text/css&pipeline=debug&id=e6604e87edfb2b123cf1afd4d9f080a9351face1690cb4b76775cfe3f003676f:ET