I"÷/Users/apple/Desktop/Desktop%20-%20Jessie's%20MacBook%20Pro%2015/Flairon/Labs/rails-dynamic-request-readme-v-000/app/assets/stylesheets/application.css?type=text/css&pipeline=self&id=d6ccc82ed1e30931ef1cf464f2df2f60d8fb7a7fbc94499352aec8728f5a4c32:ET