I"ø/Users/logansmcansh/Library/Mobile%20Documents/com~apple~CloudDocs/LEARN/rails/rails-dynamic-request-readme-v-000/app/assets/stylesheets/application.css?type=text/css&pipeline=self&id=79da7600e4a449ccdf1b02564ff3a2a40e0d27b929b773f231cf4c32088b19ab:ET