I"÷/Users/logansmcansh/Library/Mobile%20Documents/com~apple~CloudDocs/LEARN/rails/rails-dynamic-request-readme-v-000/app/assets/javascripts/application.js?type=application/javascript&id=1978e1b36a0c2313a736a7b7ab03431b692429a2bf8a0aca7bbed7014b3e28ad:ET