I"ã/Users/andysbrain/Development/Labs%20and%20Exercises/Rails/rails-dynamic-request-readme-v-000/app/assets/javascripts/application.js?type=application/javascript&id=b9eb3a1b5ebef35e9273d69f22d47d9c700a0edce12fca75322c141813c03e51:ET