I"/Users/apple/Desktop/Desktop%20-%20Jessie's%20MacBook%20Pro%2015/Flairon/Labs/rails-dynamic-request-readme-v-000/app/assets/javascripts/application.js?type=application/javascript&pipeline=self&id=f35b60629c09cbc874dff5f6fe580ef04ca3deb58eea3f5fb9333b6851cc8426:ET