I"Ý/Users/Ariana/Development/Learn%20Labs/rails-dynamic-request-readme-v-000/app/assets/javascripts/application.js?type=application/javascript&pipeline=self&id=01a93b5dc03aba760bb2f66897850957198e06479d26525679f79caf041f2ed8:ET