I"Â/Users/Ariana/Development/Learn%20Labs/rails-dynamic-request-readme-v-000/app/assets/stylesheets/application.css?type=text/css&id=14efba40eb1773478aac0cd1ec9899565ee006ec0693878ef1506ce576d0fff8:ET