I"Ì/Users/guibinzhang/Flatiron%20Learn/rails-dynamic-request-readme-v-000/app/assets/javascripts/application.js?type=application/javascript&id=fd12b8b1391bf7fad1c47822e37f19e73c525452402e39046a3534a2837b00d2:ET