I"ì/Users/janicedarikho/Documents/Code%20+%20UI:UX/Flatiron/Labs/Rails/rails-dynamic-request-readme-v-000/app/assets/javascripts/application.js?type=application/javascript&id=c473b1c841aeee53435410d5bde2535ed99ce7bcd2624c7e9c48f9373f2b8e7f:ET