I"Ý/Users/theresamorelli%201%202/Development/code/Rails/rails-dynamic-request-readme-v-000/app/assets/javascripts/application.js?type=application/javascript&id=95574b62cba162f197dd1c866398b847a1e608ea244213c0dd01b23705a880b9:ET