I"Ö/Users/andysbrain/Development/Labs%20and%20Exercises/Rails/rails-dynamic-request-readme-v-000/app/assets/stylesheets/application.css?type=text/css&id=ec7484ea4c74e78b4b11d135d68453618cc33c7c5e8e1c5ee044c55c54573a6b:ET