I"î/Users/raustin/Development/Labs%20and%20Exercises/Rails/rails-dynamic-request-readme-v-000/app/assets/javascripts/application.js?type=application/javascript&pipeline=self&id=442d1543f6377c1832201133b72f8705e8c7e6e7f12f6ec87b2e537300cbe5aa:ET