I"Í/Users/guibinzhang/Flatiron%20Learn/rails-dynamic-request-readme-v-000/app/assets/stylesheets/application.css?type=text/css&pipeline=self&id=0be6e183a421ad131707b1c94289f8819dd3c545dd923c2d3c6dcbdf8c16a09c:ET