I"à/Users/raustin/Development/Labs%20and%20Exercises/Rails/rails-dynamic-request-readme-v-000/app/assets/javascripts/application.js?type=application/javascript&id=599855eacbd8c0c8868c63d34f1b8c76269d6b0933374dc24ee3ad676f86d562:ET