I"ú/Users/janicedarikho/Documents/Code%20+%20UI:UX/Flatiron/Labs/Rails/rails-dynamic-request-readme-v-000/app/assets/javascripts/application.js?type=application/javascript&pipeline=self&id=d660b83e17dfc5242219bad53bf362b72ac58bd1274a9c9ee6e5320b050d220f:ET