I"Å/Users/kachelwittig/Google%20Drive/CODE/Flatiron/Rails/rails-dynamic-request/app/assets/stylesheets/application.css?type=text/css&id=f6822e1a7f751dbfac260d3676e90ab9a77c3f24a70e35a0eb2e643b32f566a9:ET